Circuit: * C:\Users\adolganov\Google Drive\electronics\funky dude 2 EQ\funky_dude_2eq_v5(w 100K pots).asc

WARNING: Node OUT is floating.

WARNING: Less than two connections to node OUT.  This node is used by C9.
Direct Newton iteration for .op point succeeded.
.step w=0
.step w=0.1
.step w=0.2
.step w=0.3
.step w=0.4
.step w=0.5
.step w=0.6
.step w=0.7
.step w=0.8
.step w=0.9
.step w=1

Date: Fri May 24 16:45:26 2013
Total elapsed time: 0.374 seconds.

tnom = 27
temp = 27
method = trap
totiter = 3
traniter = 0
tranpoints = 0
accept = 0
rejected = 0
matrix size = 22
fillins = 12
solver = Normal
Matrix Compiler1:     120 opcodes
Matrix Compiler2: 2,41 Ko object code size

